I"î/Users/ahamedabbas/Documents/web%20development/week4/rails/rails-dynamic-request-readme-nyc-web-040218/app/assets/stylesheets/application.css?type=text/css&pipeline=debug&id=e36ecdd8c8187e8caaea7e6e8f851446d829c875fbff005fbecd3e1878755df7:ET