I"ó/Users/flatironschool/Desktop/Flatiron%20Labs/Module%202/Week%204/rails-dynamic-request-readme-nyc-web-040218/app/assets/javascripts/application.js?type=application/javascript&id=4ca0efc5abc41861de5676d60d238504024bf8254abb6376fb0091540bceaafb:ET