I"û/Users/ahamedabbas/Documents/web%20development/week4/rails/rails-dynamic-request-readme-nyc-web-040218/app/assets/javascripts/application.js?type=application/javascript&pipeline=debug&id=db36a7e89717063fadf28cd055593879109577431c04ff1ee6e0636bce8c88db:ET