I"ô/Users/flatironschool/Desktop/Flatiron%20Labs/Module%202/Week%204/rails-dynamic-request-readme-nyc-web-040218/app/assets/stylesheets/application.css?type=text/css&pipeline=self&id=d28192aa4384dd0129d999a02f5cba035580f6626e921f058c264da4aa451de5:ET