I"ú/Users/ahamedabbas/Documents/web%20development/week4/rails/rails-dynamic-request-readme-nyc-web-040218/app/assets/javascripts/application.js?type=application/javascript&pipeline=self&id=7dd3481af71947749e448ecc265c6f72f91d86e1ad585c73e6297adb7ad3f70b:ET