I"ì/Users/ahamedabbas/Documents/web%20development/week4/rails/rails-dynamic-request-readme-nyc-web-040218/app/assets/javascripts/application.js?type=application/javascript&id=75cdbcb56536037bf48eafb4546d269a34230a66010c5d702362776bef43b0b9:ET