I"ú/Users/ahamedabbas/Documents/web%20development/week4/rails/rails-dynamic-request-readme-nyc-web-040218/app/assets/javascripts/application.js?type=application/javascript&pipeline=self&id=67fb60cdb56d6b747595640293091380060439c090451ef8b36d1c45b9daad50:ET