I"ß/Users/ahamedabbas/Documents/web%20development/week4/rails/rails-dynamic-request-readme-nyc-web-040218/app/assets/stylesheets/application.css?type=text/css&id=241bc6e2f4d82451b92240fba024e155d2f1644bc5e2be8ed14329df3c14427b:ET