I"í/Users/ahamedabbas/Documents/web%20development/week4/rails/rails-dynamic-request-readme-nyc-web-040218/app/assets/stylesheets/application.css?type=text/css&pipeline=self&id=6db465089c833ff75616d4ec9ab49ce60e4194ef68424ca2b70bda457d86a7a2:ET