I"æ/Users/flatironschool/Desktop/Flatiron%20Labs/Module%202/Week%204/rails-dynamic-request-readme-nyc-web-040218/app/assets/stylesheets/application.css?type=text/css&id=0c2864ae133c730442552be94683b300e6ada92871616625cb010124113b328d:ET