I"/Users/flatironschool/Desktop/Flatiron%20Labs/Module%202/Week%204/rails-dynamic-request-readme-nyc-web-040218/app/assets/javascripts/application.js?type=application/javascript&pipeline=self&id=25a5c176cb4394b2ec8ac39394ca31b8a82424aca42abb812c345317e861ccaa:ET