I"ß/Users/ahamedabbas/Documents/web%20development/week4/rails/rails-dynamic-request-readme-nyc-web-040218/app/assets/stylesheets/application.css?type=text/css&id=b02798c76597bb6d5d72f34972277a4bb6ca5194fb6484571465f15234770bc0:ET