I"í/Users/ahamedabbas/Documents/web%20development/week4/rails/rails-dynamic-request-readme-nyc-web-040218/app/assets/stylesheets/application.css?type=text/css&pipeline=self&id=7cfef60ed319beca6c6b585caa3c3ece903e498c18bc628ce10ffabe77ec66f5:ET