I"ì/Users/ahamedabbas/Documents/web%20development/week4/rails/rails-dynamic-request-readme-nyc-web-040218/app/assets/javascripts/application.js?type=application/javascript&id=10ce84f0f2b53549f339fa576d7b403f4291fe3afae6f74cfbd434037cb6a50a:ET